SOLVER = EULER
MATH_PROBLEM = DIRECT
RESTART_SOL = NO
MACH_NUMBER = 0.3
AOA = -2.0
SIDESLIP_ANGLE = 0.0
FREESTREAM_PRESSURE = 101325.0
FREESTREAM_TEMPERATURE = 288.15
REF_ORIGIN_MOMENT_X = 10.057
REF_ORIGIN_MOMENT_Y = 0.0
REF_ORIGIN_MOMENT_Z = 2.53
REF_LENGTH = 1.801
REF_AREA = 55.209
REF_DIMENSIONALIZATION = DIMENSIONAL
MACH_MOTION = 0.5

MOTION_ORIGIN =  0.0 0.0 0.0
ROTATION_RATE = 0.0 0.0 0.0
MARKER_EULER = (VTP,Fuselage,HTP,Wing)
MARKER_FAR =  (Farfield)
MARKER_SYM =  (0)
MARKER_PLOTTING = (VTP,Fuselage,HTP,Wing)
MARKER_MONITORING = (VTP,Fuselage,HTP,Wing)
MARKER_DESIGNING = ( 0 ) 
NUM_METHOD_GRAD = WEIGHTED_LEAST_SQUARES
OBJECTIVE_FUNCTION = DRAG
CFL_NUMBER = 1.0
CFL_ADAPT = NO
CFL_ADAPT_PARAM = ( 1.5 , 0.5 , 1.0 , 100.0 ) 
RK_ALPHA_COEFF = ( 0.66667 , 0.66667 , 1.000000 ) 
INNER_ITER = 100
LINEAR_SOLVER = BCGSTAB
LINEAR_SOLVER_ERROR = 1E-6
LINEAR_SOLVER_ITER = 5
VENKAT_LIMITER_COEFF = 0.03
ADJ_SHARP_LIMITER_COEFF = 3.0
REF_SHARP_EDGES = 3.0
SENS_REMOVE_SHARP = NO
MGLEVEL = 0
MGCYCLE = W_CYCLE
MG_PRE_SMOOTH = ( 1 , 2 , 3 , 3 ) 
MG_POST_SMOOTH = ( 0 , 0 , 0 , 0 ) 
MG_CORRECTION_SMOOTH = ( 0 , 0 , 0 , 0 ) 
MG_DAMP_RESTRICTION = 0.9
MG_DAMP_PROLONGATION = 0.9
CONV_NUM_METHOD_FLOW = JST
MUSCL_FLOW = YES
SLOPE_LIMITER_FLOW = VENKATAKRISHNAN
JST_SENSOR_COEFF = ( 0.5 , 0.04 ) 
TIME_DISCRE_FLOW = EULER_IMPLICIT
CONV_NUM_METHOD_ADJFLOW = JST
MUSCL_ADJFLOW = YES
SLOPE_LIMITER_ADJFLOW = NONE
ADJ_JST_SENSOR_COEFF = ( 0.0 , 0.04 ) 
CFL_REDUCTION_ADJFLOW = 0.5
TIME_DISCRE_ADJFLOW = EULER_IMPLICIT
CONV_CRITERIA = RESIDUAL
% RESIDUAL_REDUCTION = 3
CONV_RESIDUAL_MINVAL = -10
CONV_STARTITER = 0
CONV_CAUCHY_ELEMS = 100
CONV_CAUCHY_EPS = 1E-10

MESH_FILENAME = /users/disk10/jungo/github/CEASIOMpy/ceasiompy/WKDIR/CEASIOMpy_Run_2020-01-06_12-19-18/SUMO/ToolOutput.su2
MESH_OUT_FILENAME = mesh_out.su2
OUTPUT_FILES= (RESTART, PARAVIEW, SURFACE_PARAVIEW)
SOLUTION_ADJ_FILENAME = solution_adj.dat
MESH_FORMAT = SU2
TABULAR_FORMAT = CSV
CONV_FILENAME = history

WRT_SOL_FREQ = 50
WRT_CON_FREQ = 1
DV_KIND = FFD_SETTING
DV_MARKER = (VTP,Fuselage,HTP,Wing)
DV_PARAM = ( WING , 0 , 0 , 1 , 0.0 , 0.0 , 1.0 ) 
DV_VALUE = 0.01

FFD_TOLERANCE = 1E-8
FFD_ITERATIONS = 1000
FFD_DEFINITION = ( MAIN_BOX , 0.5 , 0.25 , -0.25 , 1.5 , 0.25 , -0.25 , 1.5 , 0.75 , -0.25 , 0.5 , 0.75 , -0.25 , 0.5 , 0.25 , 0.25 , 1.5 , 0.25 , 0.25 , 1.5 , 0.75 , 0.25 , 0.5 , 0.75 , 0.25 ) 
FFD_DEGREE = ( 10 , 10 , 1 ) 
FFD_CONTINUITY = 2ND_DERIVATIVE
OPT_OBJECTIVE = DRAG * 100.0
OPT_CONSTRAINT = ( LIFT > 0.2855362768 ) 
DEFINITION_DV = ( 7 , 1.0 | UPPER_SIDE , LOWER_SIDE , TIP | WING , 0 , 0 , 1 , 0.0 , 0.0 , 1.0 ) 
FIXED_CL_MODE = NO
TARGET_CL = 1.0
DCL_DALPHA = 0.1
UPDATE_AOA_ITER_LIMIT= 100
ITER_DCL_DALPHA = 80
