%%%%%%%%%%%%%%%%%%%%%%%%%%%%%%%%%%%%%%%%%%%%%%%%%%%%%%%%%%%%%%%%%%%%%%%%%%%%%%%%
%                                                                              %
% SU2 default configuration file for CEASIOMpy                                 %
% Case description: Default                                                    %
% Author: Thomas D. Economon                                                   %
% Institution: Stanford University                                             %
% Date: 2012.10.07                                                             %
% File Version 6.0.0 "Falcon"                                                %
%                                                                              %
%%%%%%%%%%%%%%%%%%%%%%%%%%%%%%%%%%%%%%%%%%%%%%%%%%%%%%%%%%%%%%%%%%%%%%%%%%%%%%%%

PHYSICAL_PROBLEM= EULER
MATH_PROBLEM= DIRECT
RESTART_SOL= NO
MACH_NUMBER= 0.2
AOA= 3.0
SIDESLIP_ANGLE= 0.0
FREESTREAM_PRESSURE= 54100
FREESTREAM_TEMPERATURE= 255.7
REF_ORIGIN_MOMENT_X= 2.5
REF_ORIGIN_MOMENT_Y= 0.00
REF_ORIGIN_MOMENT_Z= 2
REF_LENGTH= 1.7
REF_AREA= 50.111
REF_DIMENSIONALIZATION= DIMENSIONAL
GRID_MOVEMENT= NO
GRID_MOVEMENT_KIND= ROTATING_FRAME
MACH_MOTION= 0.5
MARKER_MOVING= ( Body0,VerticalStabiliser_wingID, D150_VAMP_htp,D150_VAMP_wing )
MOTION_ORIGIN_X= 0.0
MOTION_ORIGIN_Y= 0.0
MOTION_ORIGIN_Z= 0.0
ROTATION_RATE_X= 0.0
ROTATION_RATE_Y= 0.0
ROTATION_RATE_Z= 0.0
MARKER_EULER= ( Wing, H-tail, V-tail, LeftTank, RightTank, LeftPylonTank, Right_pylon_tank, Pylon, LeftNacelle, RightNacelle, Fuselage )
MARKER_FAR= ( Farfield, RightEngineExhaust, LeftEngineExhaust, RightEngineIntake, LeftEngineIntake )
MARKER_SYM= ( 0 )
MARKER_PLOTTING= ( Wing, H-tail, V-tail, LeftTank, RightTank, LeftPylonTank, Right_pylon_tank, Pylon, LeftNacelle, RightNacelle, RightEngineExhaust, LeftEngineExhaust, RightEngineIntake, LeftEngineIntake, Fuselage )
MARKER_MONITORING= ( Wing, H-tail, V-tail, LeftTank, RightTank, LeftPylonTank, Right_pylon_tank, Pylon, LeftNacelle, RightNacelle, RightEngineExhaust, LeftEngineExhaust, RightEngineIntake, LeftEngineIntake, Fuselage )
MARKER_DESIGNING= ( 0 )
NUM_METHOD_GRAD= WEIGHTED_LEAST_SQUARES
OBJECTIVE_FUNCTION= DRAG
CFL_NUMBER= 1.0
CFL_ADAPT= NO
CFL_ADAPT_PARAM= ( 1.5, 0.5, 1.0, 100.0 )
RK_ALPHA_COEFF= ( 0.66667, 0.66667, 1.000000 )
EXT_ITER= 3000
LINEAR_SOLVER= BCGSTAB
LINEAR_SOLVER_ERROR= 1E-6
LINEAR_SOLVER_ITER= 5
VENKAT_LIMITER_COEFF= 0.03
ADJ_SHARP_LIMITER_COEFF= 3.0
REF_SHARP_EDGES= 3.0
SENS_REMOVE_SHARP= NO
MGLEVEL= 3
MGCYCLE= W_CYCLE
MG_PRE_SMOOTH= ( 1, 2, 3, 3 )
MG_POST_SMOOTH= ( 0, 0, 0, 0 )
MG_CORRECTION_SMOOTH= ( 0, 0, 0, 0 )
MG_DAMP_RESTRICTION= 0.9
MG_DAMP_PROLONGATION= 0.9
CONV_NUM_METHOD_FLOW= JST
MUSCL_FLOW= YES
SLOPE_LIMITER_FLOW= VENKATAKRISHNAN
JST_SENSOR_COEFF= ( 0.5, 0.04 )
TIME_DISCRE_FLOW= EULER_IMPLICIT
CONV_NUM_METHOD_ADJFLOW= JST
MUSCL_ADJFLOW= YES
SLOPE_LIMITER_ADJFLOW= NONE
ADJ_JST_SENSOR_COEFF= ( 0.0, 0.04 )
CFL_REDUCTION_ADJFLOW= 0.5
TIME_DISCRE_ADJFLOW= EULER_IMPLICIT
CONV_CRITERIA= RESIDUAL
RESIDUAL_REDUCTION= 3
RESIDUAL_MINVAL= -10
STARTCONV_ITER= 0
CAUCHY_ELEMS= 100
CAUCHY_EPS= 1E-10
CAUCHY_FUNC_FLOW= DRAG
MESH_FILENAME= optimale_mesh2M.su2
MESH_OUT_FILENAME= mesh_out.su2
SOLUTION_FLOW_FILENAME= restart_flow.dat
SOLUTION_ADJ_FILENAME= solution_adj.dat
MESH_FORMAT= SU2
OUTPUT_FORMAT= PARAVIEW
CONV_FILENAME= history
RESTART_FLOW_FILENAME= restart_flow.dat
RESTART_ADJ_FILENAME= restart_adj.dat
VOLUME_FLOW_FILENAME= flow
VOLUME_ADJ_FILENAME= adjoint
GRAD_OBJFUNC_FILENAME= of_grad.dat
SURFACE_FLOW_FILENAME= surface_flow
SURFACE_ADJ_FILENAME= surface_adjoint
WRT_SOL_FREQ= 50
WRT_CON_FREQ= 1
DV_KIND= FFD_SETTING
DV_MARKER= ( UPPER_SIDE, LOWER_SIDE, TIP )
DV_PARAM= ( WING, 0, 0, 1, 0.0, 0.0, 1.0 )
DV_VALUE= 0.01
DEFORM_LINEAR_SOLVER= FGMRES
DEFORM_LINEAR_ITER= 500
DEFORM_NONLINEAR_ITER= 1
DEFORM_CONSOLE_OUTPUT= YES
DEFORM_TOL_FACTOR= 1E-6
DEFORM_COEFF= 1E6
DEFORM_STIFFNESS_TYPE= INVERSE_VOLUME
VISUALIZE_DEFORMATION= NO
FFD_TOLERANCE= 1E-8
FFD_ITERATIONS= 1000
FFD_DEFINITION= (MAIN_BOX, 0.5, 0.25, -0.25, 1.5, 0.25, -0.25, 1.5, 0.75, -0.25, 0.5, 0.75, -0.25, 0.5, 0.25, 0.25, 1.5, 0.25, 0.25, 1.5, 0.75, 0.25, 0.5, 0.75, 0.25)
FFD_DEGREE= (10, 10, 1)
FFD_CONTINUITY= 2ND_DERIVATIVE
OPT_OBJECTIVE= DRAG * 100.0
OPT_CONSTRAINT= ( LIFT > 0.2855362768 ) * 100.0;
DEFINITION_DV= ( 7, 1.0 | UPPER_SIDE, LOWER_SIDE, TIP | WING, 0, 0, 1, 0.0, 0.0, 1.0 ); ( 7, 1.0 | UPPER_SIDE, LOWER_SIDE, TIP | WING, 1, 0, 1, 0.0, 0.0, 1.0 ); ( 7, 1.0 | UPPER_SIDE, LOWER_SIDE, TIP | WING, 2, 0, 1, 0.0, 0.0, 1.0 ); ( 7, 1.0 | UPPER_SIDE, LOWER_SIDE, TIP | WING, 3, 0, 1, 0.0, 0.0, 1.0 ); ( 7, 1.0 | UPPER_SIDE, LOWER_SIDE, TIP | WING, 4, 0, 1, 0.0, 0.0, 1.0 ); ( 7, 1.0 | UPPER_SIDE, LOWER_SIDE, TIP | WING, 0, 1, 1, 0.0, 0.0, 1.0 ); ( 7, 1.0 | UPPER_SIDE, LOWER_SIDE, TIP | WING, 1, 1, 1, 0.0, 0.0, 1.0 ); ( 7, 1.0 | UPPER_SIDE, LOWER_SIDE, TIP | WING, 2, 1, 1, 0.0, 0.0, 1.0 ); ( 7, 1.0 | UPPER_SIDE, LOWER_SIDE, TIP | WING, 3, 1, 1, 0.0, 0.0, 1.0 ); ( 7, 1.0 | UPPER_SIDE, LOWER_SIDE, TIP | WING, 4, 1, 1, 0.0, 0.0, 1.0 ); ( 7, 1.0 | UPPER_SIDE, LOWER_SIDE, TIP | WING, 0, 2, 1, 0.0, 0.0, 1.0 ); ( 7, 1.0 | UPPER_SIDE, LOWER_SIDE, TIP | WING, 1, 2, 1, 0.0, 0.0, 1.0 ); ( 7, 1.0 | UPPER_SIDE, LOWER_SIDE, TIP | WING, 2, 2, 1, 0.0, 0.0, 1.0 ); ( 7, 1.0 | UPPER_SIDE, LOWER_SIDE, TIP | WING, 3, 2, 1, 0.0, 0.0, 1.0 ); ( 7, 1.0 | UPPER_SIDE, LOWER_SIDE, TIP | WING, 4, 2, 1, 0.0, 0.0, 1.0 ); ( 7, 1.0 | UPPER_SIDE, LOWER_SIDE, TIP | WING, 0, 3, 1, 0.0, 0.0, 1.0 ); ( 7, 1.0 | UPPER_SIDE, LOWER_SIDE, TIP | WING, 1, 3, 1, 0.0, 0.0, 1.0 ); ( 7, 1.0 | UPPER_SIDE, LOWER_SIDE, TIP | WING, 2, 3, 1, 0.0, 0.0, 1.0 ); ( 7, 1.0 | UPPER_SIDE, LOWER_SIDE, TIP | WING, 3, 3, 1, 0.0, 0.0, 1.0 ); ( 7, 1.0 | UPPER_SIDE, LOWER_SIDE, TIP | WING, 4, 3, 1, 0.0, 0.0, 1.0 ); ( 7, 1.0 | UPPER_SIDE, LOWER_SIDE, TIP | WING, 0, 4, 1, 0.0, 0.0, 1.0 ); ( 7, 1.0 | UPPER_SIDE, LOWER_SIDE, TIP | WING, 1, 4, 1, 0.0, 0.0, 1.0 ); ( 7, 1.0 | UPPER_SIDE, LOWER_SIDE, TIP | WING, 2, 4, 1, 0.0, 0.0, 1.0 ); ( 7, 1.0 | UPPER_SIDE, LOWER_SIDE, TIP | WING, 3, 4, 1, 0.0, 0.0, 1.0 ); ( 7, 1.0 | UPPER_SIDE, LOWER_SIDE, TIP | WING, 4, 4, 1, 0.0, 0.0, 1.0 )
